Version 4.1
SHEET 1 880 680
WIRE -384 -64 -480 -64
WIRE 288 -64 -384 -64
WIRE 80 -32 48 -32
WIRE -304 0 -352 0
WIRE 48 0 48 -32
WIRE 48 0 -224 0
WIRE 80 16 80 -32
WIRE -480 48 -480 -64
WIRE 288 48 288 16
WIRE -384 64 -384 -64
WIRE 16 64 -16 64
WIRE -176 128 -256 128
WIRE -16 128 -16 64
WIRE -16 128 -96 128
WIRE 80 128 80 112
WIRE 240 128 80 128
WIRE -256 144 -256 128
WIRE 80 144 80 128
WIRE -16 192 -16 128
WIRE 16 192 -16 192
WIRE -480 384 -480 128
WIRE -384 384 -384 128
WIRE -384 384 -480 384
WIRE -352 384 -352 0
WIRE -352 384 -384 384
WIRE -256 384 -256 224
WIRE -256 384 -352 384
WIRE 16 384 -256 384
WIRE 80 384 80 240
WIRE 80 384 16 384
WIRE 288 384 288 144
WIRE 288 384 80 384
WIRE 16 416 16 384
FLAG 16 416 0
SYMBOL cap -400 64 R0
SYMATTR InstName CD1
SYMATTR Value 10µ
SYMBOL res 272 -80 R0
SYMATTR InstName RL1
SYMATTR Value 12
SYMBOL nmos 240 48 R0
SYMATTR InstName M1
SYMATTR Value IRFZ44N
SYMBOL res -80 112 R90
WINDOW 0 0 56 VBottom 2
WINDOW 3 32 56 VTop 2
SYMATTR InstName RG1
SYMATTR Value 1k
SYMBOL voltage -256 128 R0
WINDOW 123 0 0 Left 0
WINDOW 39 0 0 Left 0
SYMATTR InstName VGG1
SYMATTR Value PULSE(0 12 0 1n 1n 5u 10u)
SYMBOL voltage -480 32 R0
WINDOW 123 0 0 Left 0
WINDOW 39 0 0 Left 0
SYMATTR InstName VS
SYMATTR Value 12
SYMBOL npn 16 16 R0
SYMATTR InstName Q1
SYMATTR Value 2N2222
SYMBOL pnp 16 240 M180
SYMATTR InstName Q2
SYMATTR Value 2N2907
SYMBOL voltage -208 0 R90
WINDOW 123 0 0 Left 0
WINDOW 39 0 0 Left 0
SYMATTR InstName V1
SYMATTR Value 12
TEXT 432 -48 Left 2 !.tran 100u
TEXT -656 -160 Left 2 ;Muhammad Fathan Zahir\n22/503544/TK/55025
