Version 4.1
SHEET 1 880 680
WIRE -256 -64 -352 -64
WIRE 288 -64 -256 -64
WIRE -352 48 -352 -64
WIRE 288 48 288 16
WIRE -256 64 -256 -64
WIRE 80 128 0 128
WIRE 240 128 160 128
WIRE 0 144 0 128
WIRE 0 288 0 224
WIRE 288 288 288 144
WIRE 288 288 0 288
WIRE -352 384 -352 128
WIRE -256 384 -256 128
WIRE -256 384 -352 384
WIRE 16 384 -256 384
WIRE 288 384 288 288
WIRE 288 384 16 384
WIRE 16 416 16 384
FLAG 16 416 0
SYMBOL cap -272 64 R0
SYMATTR InstName CD1
SYMATTR Value 10µ
SYMBOL res 272 -80 R0
SYMATTR InstName RL1
SYMATTR Value 12
SYMBOL nmos 240 48 R0
SYMATTR InstName M1
SYMATTR Value IRFZ44N
SYMBOL res 176 112 R90
WINDOW 0 0 56 VBottom 2
WINDOW 3 32 56 VTop 2
SYMATTR InstName RG1
SYMATTR Value 1k
SYMBOL voltage 0 128 R0
WINDOW 123 0 0 Left 0
WINDOW 39 0 0 Left 0
SYMATTR InstName VGG1
SYMATTR Value PULSE(0 12 0 1n 1n 5u 10u)
SYMBOL voltage -352 32 R0
WINDOW 123 0 0 Left 0
WINDOW 39 0 0 Left 0
SYMATTR InstName VD1
SYMATTR Value 12
TEXT 432 -48 Left 2 !.tran 100u
